! OpenDSS script generated from multiconductor network
Clear

New Circuit.mc_network basekv=16.0 pu=1.030000 angle=0.00 frequency=60.0 phases=3 Mvasc3=1.81019e+11 Mvasc1=6.03398e+10
~ bus1=-8888882184714.1.2.3

! Line codes
New LineCode.1000_JCN_3PH_16KV_3 nphases=3 units=km Rmatrix=[ 0.009099 | 0 0.009099 | 0 0 0.009099 ] Xmatrix=[ 0.013773 | 0 0.013773 | 0 0 0.013773 ] Cmatrix=[ 0 | 0 0 | 0 0 0 ]
New LineCode.2_CLP_3PH_16KV_3 nphases=3 units=km Rmatrix=[ 0.080075 | 0 0.080075 | 0 0 0.080075 ] Xmatrix=[ 0.016878 | 0 0.016878 | 0 0 0.016878 ] Cmatrix=[ 0 | 0 0 | 0 0 0 ]
New LineCode.2/0_ACSR_3PH_16KV_3 nphases=3 units=km Rmatrix=[ 0.002459 | 0 0.002459 | 0 0 0.002459 ] Xmatrix=[ 0.002381 | 0 0.002381 | 0 0 0.002381 ] Cmatrix=[ 0 | 0 0 | 0 0 0 ]
New LineCode.1/0_ACSR_2PH_16KV_2 nphases=2 units=km Rmatrix=[ 0.068287 | 0 0.068287 ] Xmatrix=[ 0.05437 | 0 0.05437 ] Cmatrix=[ 0 | 0 0 ]
New LineCode.653_ACSR_3PH_16KV_3 nphases=3 units=km Rmatrix=[ 0.009014 | 0 0.009014 | 0 0 0.009014 ] Xmatrix=[ 0.034992 | 0 0.034992 | 0 0 0.034992 ] Cmatrix=[ 0 | 0 0 | 0 0 0 ]
New LineCode.336_ACSR_3PH_16KV_3 nphases=3 units=km Rmatrix=[ 0.014604 | 0 0.014604 | 0 0 0.014604 ] Xmatrix=[ 0.032703 | 0 0.032703 | 0 0 0.032703 ] Cmatrix=[ 0 | 0 0 | 0 0 0 ]
New LineCode.500_EPR_3PH_16KV_3 nphases=3 units=km Rmatrix=[ 1e-05 | 0 1e-05 | 0 0 1e-05 ] Xmatrix=[ 1e-05 | 0 1e-05 | 0 0 1e-05 ] Cmatrix=[ 0 | 0 0 | 0 0 0 ]
New LineCode.500_CLP_3PH_16KV_3 nphases=3 units=km Rmatrix=[ 1e-05 | 0 1e-05 | 0 0 1e-05 ] Xmatrix=[ 1e-05 | 0 1e-05 | 0 0 1e-05 ] Cmatrix=[ 0 | 0 0 | 0 0 0 ]
New LineCode.350_JCN_3PH_16KV_3 nphases=3 units=km Rmatrix=[ 0.01307 | 0 0.01307 | 0 0 0.01307 ] Xmatrix=[ 0.00993 | 0 0.00993 | 0 0 0.00993 ] Cmatrix=[ 0 | 0 0 | 0 0 0 ]
New LineCode.2_CLP_2PH_16KV_2 nphases=2 units=km Rmatrix=[ 0.058964 | 0 0.058964 ] Xmatrix=[ 0.012429 | 0 0.012429 ] Cmatrix=[ 0 | 0 0 ]
New LineCode.1/0_JCN_3PH_16KV_3 nphases=3 units=km Rmatrix=[ 0.017208 | 0 0.017208 | 0 0 0.017208 ] Xmatrix=[ 0.00526 | 0 0.00526 | 0 0 0.00526 ] Cmatrix=[ 0 | 0 0 | 0 0 0 ]
New LineCode.500_PILC_3PH_16KV_3 nphases=3 units=km Rmatrix=[ 0.016884 | 0 0.016884 | 0 0 0.016884 ] Xmatrix=[ 0.0191 | 0 0.0191 | 0 0 0.0191 ] Cmatrix=[ 0 | 0 0 | 0 0 0 ]
New LineCode.6_CU_2PH_6_CU_N_16KV_3_N nphases=3 units=km Rmatrix=[ 0.14009 | 0 0.14009 | 0 0 0.14009 ] Xmatrix=[ 0.045243 | 0 0.045243 | 0 0 0.045243 ] Cmatrix=[ 0 | 0 0 | 0 0 0 ]
New LineCode.1/0_ACSR_3PH_1/0_ACSR_N_16KV_4 nphases=4 units=km Rmatrix=[ 0.030356 | 0 0.030356 | 0 0 0.030356 | 0 0 0 0.030356 ] Xmatrix=[ 0.021938 | 0 0.021938 | 0 0 0.021938 | 0 0 0 0.021938 ] Cmatrix=[ 0 | 0 0 | 0 0 0 | 0 0 0 0 ]
New LineCode.1/0_ACSR_3PH_16KV_3 nphases=3 units=km Rmatrix=[ 0.013154 | 0 0.013154 | 0 0 0.013154 ] Xmatrix=[ 0.010474 | 0 0.010474 | 0 0 0.010474 ] Cmatrix=[ 0 | 0 0 | 0 0 0 ]

! Lines
New Line.16955$GS0638-3 phases=3 Bus1=-8888882184714.1.2.3 Bus2=55295306.1.2.3 LineCode=1000_JCN_3PH_16KV_3 Length=0.181165 units=km
New Line.RCS0693-4$GS0638-1 phases=3 Bus1=55295298.1.2.3 Bus2=60681169.1.2.3 LineCode=1000_JCN_3PH_16KV_3 Length=0.178884 units=km
New Line.GS0625-2$ND55345895 phases=3 Bus1=55295605.1.2.3 Bus2=55345873.1.2.3 LineCode=2_CLP_3PH_16KV_3 Length=0.031991 units=km
New Line.GS0626-2$ND246248050 phases=3 Bus1=55295743.1.2.3 Bus2=246248050.1.2.3 LineCode=2_CLP_3PH_16KV_3 Length=0.166502 units=km
New Line.1541350E$ND55347359 phases=3 Bus1=55295452.1.2.3 Bus2=55347359.1.2.3 LineCode=2/0_ACSR_3PH_16KV_3 Length=0.004695 units=km
New Line.ND55347359$1658475E phases=3 Bus1=55347359.1.2.3 Bus2=55345380.1.2.3 LineCode=2/0_ACSR_3PH_16KV_3 Length=0.170044 units=km
New Line.1541350EOT$ND55347359 phases=3 Bus1=55347359.1.2.3 Bus2=55346817.1.2.3 LineCode=2/0_ACSR_3PH_16KV_3 Length=0.005885 units=km
New Line.1658475E$1658474E phases=3 Bus1=55345380.1.2.3 Bus2=55295574.1.2.3 LineCode=2/0_ACSR_3PH_16KV_3 Length=0.050114 units=km
New Line.1658474E$1658472E phases=2 Bus1=55295574.2.3 Bus2=55295549.2.3 LineCode=1/0_ACSR_2PH_16KV_2 Length=0.058154 units=km
New Line.1541350EOT$ND55347869 phases=3 Bus1=55346818.1.2.3 Bus2=55347869.1.2.3 LineCode=653_ACSR_3PH_16KV_3 Length=0.473844 units=km
New Line.1658472E$1658471E phases=2 Bus1=55295549.2.3 Bus2=55295524.2.3 LineCode=1/0_ACSR_2PH_16KV_2 Length=0.044025 units=km
New Line.ND55347869$1349619E phases=3 Bus1=55347869.1.2.3 Bus2=55318653.1.2.3 LineCode=653_ACSR_3PH_16KV_3 Length=0.053944 units=km
New Line.ND55347869$PS0338 phases=3 Bus1=55347869.1.2.3 Bus2=55346080.1.2.3 LineCode=653_ACSR_3PH_16KV_3 Length=0.053944 units=km
New Line.1658471E$4535081E phases=2 Bus1=55295524.2.3 Bus2=55295499.2.3 LineCode=1/0_ACSR_2PH_16KV_2 Length=0.040989 units=km
New Line.1662221E$PS0338 phases=3 Bus1=55346081.1.2.3 Bus2=58629622.1.2.3 LineCode=653_ACSR_3PH_16KV_3 Length=0.05903 units=km
New Line.1662218E$1662221E phases=3 Bus1=58629622.1.2.3 Bus2=58606800.1.2.3 LineCode=653_ACSR_3PH_16KV_3 Length=0.136368 units=km
New Line.ND58679354$1662218E phases=3 Bus1=58606800.1.2.3 Bus2=58679354.1.2.3 LineCode=653_ACSR_3PH_16KV_3 Length=0.099978 units=km
New Line.ND54030983$ND58679354 phases=3 Bus1=58679354.1.2.3 Bus2=54030983.1.2.3 LineCode=336_ACSR_3PH_16KV_3 Length=0.102792 units=km
New Line.ND58679354$1662215E phases=3 Bus1=58679354.1.2.3 Bus2=58606829.1.2.3 LineCode=653_ACSR_3PH_16KV_3 Length=0.088271 units=km
New Line.ND58679354$1327372E phases=3 Bus1=58679354.1.2.3 Bus2=58629595.1.2.3 LineCode=653_ACSR_3PH_16KV_3 Length=0.088652 units=km
New Line.BF02586$ND54030983 phases=2 Bus1=54030983.1.2 Bus2=206573360.1.2 LineCode=1/0_ACSR_2PH_16KV_2 Length=0.071506 units=km
New Line.ND54030983$ND229729521 phases=3 Bus1=54030983.1.2.3 Bus2=229729521.1.2.3 LineCode=336_ACSR_3PH_16KV_3 Length=0.078048 units=km
New Line.1662212E$1662215E phases=3 Bus1=58606829.1.2.3 Bus2=58629543.1.2.3 LineCode=653_ACSR_3PH_16KV_3 Length=0.131559 units=km
New Line.1327372E$1327373E phases=3 Bus1=58629595.1.2.3 Bus2=58629570.1.2.3 LineCode=653_ACSR_3PH_16KV_3 Length=0.045525 units=km
New Line.ND163631475$1662212E phases=3 Bus1=58629543.1.2.3 Bus2=163631475.1.2.3 LineCode=653_ACSR_3PH_16KV_3 Length=0.088675 units=km
New Line.ND229729521$ND54030766 phases=3 Bus1=229729521.1.2.3 Bus2=54030766.1.2.3 LineCode=336_ACSR_3PH_16KV_3 Length=0.030323 units=km
New Line.BF02586$ND206573398 phases=2 Bus1=206573361.1.2 Bus2=206573398.1.2 LineCode=1/0_ACSR_2PH_16KV_2 Length=0.002716 units=km
New Line.ND54030766$RCS2569 phases=3 Bus1=54030766.1.2.3 Bus2=210943358.1.2.3 LineCode=336_ACSR_3PH_16KV_3 Length=0.032195 units=km
New Line.ND215486954$ND163631475 phases=3 Bus1=163631475.1.2.3 Bus2=215486954.1.2.3 LineCode=653_ACSR_3PH_16KV_3 Length=0.021037 units=km
New Line.4668431E$ND54030766 phases=2 Bus1=54030766.2.3 Bus2=299261595.2.3 LineCode=1/0_ACSR_2PH_16KV_2 Length=0.034753 units=km
New Line.BF02585$4668431E phases=2 Bus1=299261595.2.3 Bus2=207913899.2.3 LineCode=1/0_ACSR_2PH_16KV_2 Length=0.005874 units=km
New Line.ND206573398$4761140E phases=2 Bus1=206573398.1.2 Bus2=54028408.1.2 LineCode=1/0_ACSR_2PH_16KV_2 Length=0.031908 units=km
New Line.4374250E$ND206573398 phases=2 Bus1=206573398.1.2 Bus2=54029939.1.2 LineCode=1/0_ACSR_2PH_16KV_2 Length=0.059036 units=km
New Line.ND58679746$ND215486954 phases=3 Bus1=215486954.1.2.3 Bus2=58679746.1.2.3 LineCode=653_ACSR_3PH_16KV_3 Length=0.043784 units=km
New Line.ND58679746$PS1516 phases=3 Bus1=58679746.1.2.3 Bus2=135632222.1.2.3 LineCode=653_ACSR_3PH_16KV_3 Length=0.088121 units=km
New Line.4374250E$589031E phases=2 Bus1=54029939.1.2 Bus2=54028333.1.2 LineCode=1/0_ACSR_2PH_16KV_2 Length=0.080171 units=km
New Line.4761140E$4435581E phases=2 Bus1=54028408.1.2 Bus2=54030064.1.2 LineCode=1/0_ACSR_2PH_16KV_2 Length=0.089502 units=km
New Line.1662210E$ND58679746 phases=3 Bus1=58679746.1.2.3 Bus2=58629494.1.2.3 LineCode=653_ACSR_3PH_16KV_3 Length=0.088121 units=km
New Line.ND210943564$BF02585 phases=2 Bus1=207913900.2.3 Bus2=210943564.2.3 LineCode=1/0_ACSR_2PH_16KV_2 Length=0.00416 units=km
New Line.1541350E$GS0638-4 phases=3 Bus1=55295314.1.2.3 Bus2=55295453.1.2.3 LineCode=500_EPR_3PH_16KV_3 Length=0.292739 units=km
New Line.1349619E$GS0625-3 phases=3 Bus1=55318654.1.2.3 Bus2=55295613.1.2.3 LineCode=500_EPR_3PH_16KV_3 Length=0.37615 units=km
New Line.GS0626-1$GS0625-1 phases=3 Bus1=55295597.1.2.3 Bus2=55295751.1.2.3 LineCode=500_EPR_3PH_16KV_3 Length=0.151865 units=km
New Line.GS0609-4$GS0626-4 phases=3 Bus1=55295767.1.2.3 Bus2=55295950.1.2.3 LineCode=500_EPR_3PH_16KV_3 Length=0.166502 units=km
New Line.RCS0631-2$V5002103T2 phases=3 Bus1=55316523.1.2.3 Bus2=177740135.1.2.3 LineCode=500_EPR_3PH_16KV_3 Length=0.442261 units=km
New Line.V5002103T2$GS1777-3 phases=3 Bus1=177740135.1.2.3 Bus2=173020031.1.2.3 LineCode=500_EPR_3PH_16KV_3 Length=0.498921 units=km
New Line.GS0610-1$GS0627-1 phases=3 Bus1=42998409.1.2.3 Bus2=174738672.1.2.3 LineCode=500_EPR_3PH_16KV_3 Length=0.229056 units=km
New Line.GS0628-3$GS0627-4 phases=3 Bus1=174738699.1.2.3 Bus2=174139546.1.2.3 LineCode=500_EPR_3PH_16KV_3 Length=0.132688 units=km
New Line.J073A-4P$GS0628-4 phases=3 Bus1=174139555.1.2.3 Bus2=174139663.1.2.3 LineCode=500_EPR_3PH_16KV_3 Length=0.233323 units=km
New Line.1387681E$GS0628-2 phases=3 Bus1=174139537.1.2.3 Bus2=42981371.1.2.3 LineCode=500_EPR_3PH_16KV_3 Length=0.061034 units=km
New Line.ND143461289$GS0628-1 phases=3 Bus1=174139528.1.2.3 Bus2=143461289.1.2.3 LineCode=500_EPR_3PH_16KV_3 Length=0.26843 units=km
New Line.ND143461289$V5002129PT phases=3 Bus1=143461289.1.2.3 Bus2=176394353.1.2.3 LineCode=500_EPR_3PH_16KV_3 Length=0.22808 units=km
New Line.GS1777-2$ND177740084 phases=3 Bus1=173020022.1.2.3 Bus2=177740084.1.2.3 LineCode=500_EPR_3PH_16KV_3 Length=0.003758 units=km
New Line.ND177283116$GS1777-1 phases=3 Bus1=173020013.1.2.3 Bus2=177283116.1.2.3 LineCode=500_EPR_3PH_16KV_3 Length=0.146934 units=km
New Line.V5002129PT$RCS0631-1 phases=3 Bus1=176394353.1.2.3 Bus2=55316531.1.2.3 LineCode=500_EPR_3PH_16KV_3 Length=0.223653 units=km
New Line.P5441783-1$J073A-3P phases=3 Bus1=174139655.1.2.3 Bus2=42999659.1.2.3 LineCode=500_CLP_3PH_16KV_3 Length=0.013382 units=km
New Line.GS0609-1$GS0610-3 phases=3 Bus1=55295934.1.2.3 Bus2=42998417.1.2.3 LineCode=500_EPR_3PH_16KV_3 Length=0.26321 units=km
New Line.RCS9711-4$1662210E phases=3 Bus1=58629495.1.2.3 Bus2=165329098.1.2.3 LineCode=350_JCN_3PH_16KV_3 Length=0.058861 units=km
New Line.4159855E$4462456E phases=2 Bus1=54028433.1.2 Bus2=206573356.1.2 LineCode=1/0_ACSR_2PH_16KV_2 Length=0.03047 units=km
New Line.508576H$ND246248050 phases=2 Bus1=246248050.1.2 Bus2=51230451.1.2 LineCode=2_CLP_2PH_16KV_2 Length=0.035354 units=km
New Line.ND246248050$508347H phases=3 Bus1=246248050.1.2.3 Bus2=51230464.1.2.3 LineCode=2_CLP_3PH_16KV_3 Length=0.140446 units=km
New Line.917396E$ND210943564 phases=2 Bus1=210943564.2.3 Bus2=54028358.2.3 LineCode=1/0_ACSR_2PH_16KV_2 Length=0.041649 units=km
New Line.GS0610-2$P5405832-A phases=3 Bus1=42998401.1.2.3 Bus2=151406547.1.2.3 LineCode=2_CLP_3PH_16KV_3 Length=0.127451 units=km
New Line.1579868E$P5405832-B phases=3 Bus1=151406565.1.2.3 Bus2=42981855.1.2.3 LineCode=2_CLP_3PH_16KV_3 Length=0.062678 units=km
New Line.1605137E$GS0627-2 phases=3 Bus1=174738681.1.2.3 Bus2=42981792.1.2.3 LineCode=1/0_JCN_3PH_16KV_3 Length=0.030982 units=km
New Line.1579864E$BS0867-T phases=3 Bus1=42981868.1.2.3 Bus2=43019196.1.2.3 LineCode=2_CLP_3PH_16KV_3 Length=0.030462 units=km
New Line.BS0867-R$210332484 phases=3 Bus1=43019188.1.2.3 Bus2=210332486.1.2.3 LineCode=2_CLP_3PH_16KV_3 Length=0.006942 units=km
New Line.BS0867-L$ND43021035 phases=3 Bus1=43019179.1.2.3 Bus2=43021035.1.2.3 LineCode=2_CLP_3PH_16KV_3 Length=0.010372 units=km
New Line.ND43021035$B5054765-2 phases=2 Bus1=43021035.1.3 Bus2=42999716.1.3 LineCode=2_CLP_2PH_16KV_2 Length=0.007248 units=km
New Line.B5054766-1$ND43021035 phases=3 Bus1=43021035.1.2.3 Bus2=43018546.1.2.3 LineCode=2_CLP_3PH_16KV_3 Length=0.03337 units=km
New Line.ND177283116$GS1793-2 phases=3 Bus1=177283116.1.2.3 Bus2=177282962.1.2.3 LineCode=1000_JCN_3PH_16KV_3 Length=0.107502 units=km
New Line.210332484$P5054764-A phases=3 Bus1=210332487.1.2.3 Bus2=210332407.1.2.3 LineCode=2_CLP_3PH_16KV_3 Length=0.001837 units=km
New Line.B5054766-2$B5054767-1 phases=2 Bus1=43018555.1.3 Bus2=42999779.1.3 LineCode=2_CLP_2PH_16KV_2 Length=0.075132 units=km
New Line.B5054768-2$B5054765-1 phases=2 Bus1=42999707.1.3 Bus2=43018483.1.3 LineCode=2_CLP_2PH_16KV_2 Length=0.062063 units=km
New Line.884099E$1327583E phases=2 Bus1=54029162.2.3 Bus2=54028383.2.3 LineCode=1/0_ACSR_2PH_16KV_2 Length=0.047617 units=km
New Line.GS1792-1$GS1793-3 phases=3 Bus1=177282971.1.2.3 Bus2=176928355.1.2.3 LineCode=1000_JCN_3PH_16KV_3 Length=0.107558 units=km
New Line.GS1793-1$ND11883115 phases=3 Bus1=177282953.1.2.3 Bus2=-777777177282953.1.2.3 LineCode=500_PILC_3PH_16KV_3 Length=0.411475 units=km
New Line.4435581E$4159855E phases=2 Bus1=54030064.1.2 Bus2=54028433.1.2 LineCode=1/0_ACSR_2PH_16KV_2 Length=0.120313 units=km
New Line.406057E$ND210943564 phases=2 Bus1=210943564.2.3 Bus2=54028458.2.3 LineCode=1/0_ACSR_2PH_16KV_2 Length=0.038105 units=km
New Line.695329H$695331H phases=3 Bus1=51229774.0.1.2 Bus2=51244674.0.1.2 LineCode=6_CU_2PH_6_CU_N_16KV_3_N Length=0.08166 units=km
New Line.406057E$583250E phases=2 Bus1=54028458.2.3 Bus2=207913876.2.3 LineCode=1/0_ACSR_2PH_16KV_2 Length=0.089504 units=km
New Line.508576H$61544E phases=3 Bus1=51230450.0.1.2 Bus2=123861022.0.1.2 LineCode=6_CU_2PH_6_CU_N_16KV_3_N Length=0.048886 units=km
New Line.508347H$508628H phases=4 Bus1=51230463.0.1.2.3 Bus2=51229801.0.1.2.3 LineCode=1/0_ACSR_3PH_1/0_ACSR_N_16KV_4 Length=0.066195 units=km
New Line.583250E$583249E phases=2 Bus1=207913876.2.3 Bus2=54028483.2.3 LineCode=1/0_ACSR_2PH_16KV_2 Length=0.032002 units=km
New Line.1387682E$1430538E phases=3 Bus1=42981723.1.2.3 Bus2=42981752.1.2.3 LineCode=1/0_ACSR_3PH_16KV_3 Length=0.088628 units=km
New Line.PS1226$ND166167736 phases=3 Bus1=43019928.1.2.3 Bus2=166167736.1.2.3 LineCode=336_ACSR_3PH_16KV_3 Length=0.048633 units=km
New Line.4513975E$1387682E phases=3 Bus1=42981752.1.2.3 Bus2=42981781.1.2.3 LineCode=1/0_ACSR_3PH_16KV_3 Length=0.040496 units=km
New Line.1579868E$1579866E phases=3 Bus1=42981854.1.2.3 Bus2=42997354.1.2.3 LineCode=1/0_ACSR_3PH_16KV_3 Length=0.029308 units=km
New Line.1579866E$1579864E phases=3 Bus1=42997354.1.2.3 Bus2=42981867.1.2.3 LineCode=1/0_ACSR_3PH_16KV_3 Length=0.020553 units=km
New Line.137E$BF22787 phases=3 Bus1=42981791.1.2.3 Bus2=219234733.1.2.3 LineCode=1/0_ACSR_3PH_16KV_3 Length=0.046587 units=km
New Line.BF22787$4535697E phases=3 Bus1=219234734.1.2.3 Bus2=87091007.1.2.3 LineCode=1/0_ACSR_3PH_16KV_3 Length=0.009755 units=km
New Line.PS1421$4513975E phases=3 Bus1=42981781.1.2.3 Bus2=43019975.1.2.3 LineCode=1/0_ACSR_3PH_16KV_3 Length=0.033211 units=km
New Line.ND166167736$ND43021052 phases=3 Bus1=166167736.1.2.3 Bus2=43021052.1.2.3 LineCode=336_ACSR_3PH_16KV_3 Length=0.067528 units=km
New Line.BF22789$ND43021052 phases=2 Bus1=43021052.1.3 Bus2=196783908.1.3 LineCode=1/0_ACSR_2PH_16KV_2 Length=0.04182 units=km
New Line.ND43021052$ND43019959 phases=3 Bus1=43021052.1.2.3 Bus2=43019959.1.2.3 LineCode=336_ACSR_3PH_16KV_3 Length=0.045625 units=km
New Line.ND43019959$1430544E phases=3 Bus1=43019959.1.2.3 Bus2=42981492.1.2.3 LineCode=336_ACSR_3PH_16KV_3 Length=0.06572 units=km
New Line.4535697E$1605138E phases=3 Bus1=87091007.1.2.3 Bus2=42981821.1.2.3 LineCode=1/0_ACSR_3PH_16KV_3 Length=0.043872 units=km
New Line.ND196783952$BF22789 phases=2 Bus1=196783909.1.3 Bus2=196783952.1.3 LineCode=1/0_ACSR_2PH_16KV_2 Length=0.003289 units=km
New Line.1430544E$ND43020751 phases=3 Bus1=42981492.1.2.3 Bus2=43020751.1.2.3 LineCode=336_ACSR_3PH_16KV_3 Length=0.043989 units=km
New Line.ND43020751$1430548E phases=2 Bus1=43020751.2.3 Bus2=42981517.2.3 LineCode=1/0_ACSR_2PH_16KV_2 Length=0.040793 units=km
New Line.1431255E$ND196783952 phases=2 Bus1=196783952.1.3 Bus2=42981592.1.3 LineCode=1/0_ACSR_2PH_16KV_2 Length=0.006714 units=km
New Line.1431256E$ND196783952 phases=2 Bus1=196783952.1.3 Bus2=42981617.1.3 LineCode=1/0_ACSR_2PH_16KV_2 Length=0.044397 units=km
New Line.ND43020751$1430547E phases=2 Bus1=43020751.1.2 Bus2=42981642.1.2 LineCode=1/0_ACSR_2PH_16KV_2 Length=0.043989 units=km
New Line.1430548E$1430550E phases=2 Bus1=42981517.2.3 Bus2=42981442.2.3 LineCode=1/0_ACSR_2PH_16KV_2 Length=0.096776 units=km
New Line.1431256E$1431257E phases=2 Bus1=42981617.1.3 Bus2=42981467.1.3 LineCode=1/0_ACSR_2PH_16KV_2 Length=0.046017 units=km
New Line.1431255E$1431254E phases=2 Bus1=42981592.1.3 Bus2=42981567.1.3 LineCode=1/0_ACSR_2PH_16KV_2 Length=0.03998 units=km
New Line.1430547E$1430546E phases=2 Bus1=42981642.1.2 Bus2=43019728.1.2 LineCode=1/0_ACSR_2PH_16KV_2 Length=0.046568 units=km
New Line.1431254E$1431253E phases=2 Bus1=42981567.1.3 Bus2=42981542.1.3 LineCode=1/0_ACSR_2PH_16KV_2 Length=0.041598 units=km
New Line.1430546E$1279511E phases=2 Bus1=43019728.1.2 Bus2=42981667.1.2 LineCode=1/0_ACSR_2PH_16KV_2 Length=0.046519 units=km
New Line.1431253E$1685191E phases=2 Bus1=42981542.1.3 Bus2=42981417.1.3 LineCode=1/0_ACSR_2PH_16KV_2 Length=0.015593 units=km
New Line.4534422E$1387681E phases=3 Bus1=42981370.1.2.3 Bus2=42981694.1.2.3 LineCode=336_ACSR_3PH_16KV_3 Length=0.042335 units=km
New Line.1387680E$4534422E phases=3 Bus1=42981694.1.2.3 Bus2=43017952.1.2.3 LineCode=336_ACSR_3PH_16KV_3 Length=0.046287 units=km
New Line.ND43021268$1387680E phases=3 Bus1=43017952.1.2.3 Bus2=43021268.1.2.3 LineCode=336_ACSR_3PH_16KV_3 Length=0.050248 units=km
New Line.1430538E$ND43021268 phases=3 Bus1=43021268.1.2.3 Bus2=42981723.1.2.3 LineCode=1/0_ACSR_3PH_16KV_3 Length=0.002448 units=km
New Line.PS1226$ND43021268 phases=3 Bus1=43021268.1.2.3 Bus2=43019927.1.2.3 LineCode=336_ACSR_3PH_16KV_3 Length=0.044142 units=km
New Line.508628H$508349H phases=4 Bus1=51229801.0.1.2.3 Bus2=51229830.0.1.2.3 LineCode=1/0_ACSR_3PH_1/0_ACSR_N_16KV_4 Length=0.067277 units=km
New Line.4382922E$61544E phases=3 Bus1=123861022.0.1.2 Bus2=51245078.0.1.2 LineCode=6_CU_2PH_6_CU_N_16KV_3_N Length=0.080776 units=km
New Line.583249E$884099E phases=2 Bus1=54028483.2.3 Bus2=54029162.2.3 LineCode=1/0_ACSR_2PH_16KV_2 Length=0.106693 units=km
New Line.4382922E$508578H phases=3 Bus1=51245078.0.1.2 Bus2=51229724.0.1.2 LineCode=6_CU_2PH_6_CU_N_16KV_3_N Length=0.033675 units=km
New Line.508349H$508350H phases=4 Bus1=51229830.0.1.2.3 Bus2=51229859.0.1.2.3 LineCode=1/0_ACSR_3PH_1/0_ACSR_N_16KV_4 Length=0.047444 units=km
New Line.508578H$508577H phases=3 Bus1=51229724.0.1.2 Bus2=243721872.0.1.2 LineCode=6_CU_2PH_6_CU_N_16KV_3_N Length=0.094337 units=km
New Line.508350H$508348H phases=4 Bus1=51229859.0.1.2.3 Bus2=51229888.0.1.2.3 LineCode=1/0_ACSR_3PH_1/0_ACSR_N_16KV_4 Length=0.032445 units=km
New Line.508577H$695258H phases=3 Bus1=243721872.0.1.2 Bus2=137947544.0.1.2 LineCode=6_CU_2PH_6_CU_N_16KV_3_N Length=0.032846 units=km
New Line.508348H$774653H phases=4 Bus1=51229888.0.1.2.3 Bus2=51229917.0.1.2.3 LineCode=1/0_ACSR_3PH_1/0_ACSR_N_16KV_4 Length=0.072584 units=km
New Line.695258H$4740418E phases=3 Bus1=137947544.0.1.2 Bus2=51229749.0.1.2 LineCode=6_CU_2PH_6_CU_N_16KV_3_N Length=0.035748 units=km
New Line.774653H$9783718E phases=4 Bus1=51229917.0.1.2.3 Bus2=51229946.0.1.2.3 LineCode=1/0_ACSR_3PH_1/0_ACSR_N_16KV_4 Length=0.170056 units=km
New Line.4740418E$695329H phases=3 Bus1=51229749.0.1.2 Bus2=51229774.0.1.2 LineCode=6_CU_2PH_6_CU_N_16KV_3_N Length=0.085737 units=km
New Line.9783718E$774655H phases=4 Bus1=51229946.0.1.2.3 Bus2=51230440.0.1.2.3 LineCode=1/0_ACSR_3PH_1/0_ACSR_N_16KV_4 Length=0.036524 units=km
New Line.774655H$ND123860949 phases=4 Bus1=51230440.0.1.2.3 Bus2=-77777751230440.0.1.2.3 LineCode=1/0_ACSR_3PH_1/0_ACSR_N_16KV_4 Length=0.088296 units=km
New Line.ND43020751$ND137803450 phases=3 Bus1=43020751.1.2.3 Bus2=-77777743020751.1.2.3 LineCode=336_ACSR_3PH_16KV_3 Length=0.030458 units=km
New Line.1279511E$ND238633039 phases=2 Bus1=42981667.1.2 Bus2=-77777742981667.1.2 LineCode=1/0_ACSR_2PH_16KV_2 Length=0.015307 units=km

! Switches
New Line.5545443:RCS9711-4 phases=3 Bus1=165329098.1.2.3 Bus2=-777777165329098.1.2.3 switch=y r1=0.001 x1=0.001 r0=0.001 x0=0.001 Length=0.001 units=km enabled=false
New Line.5640680:GS1792-1 phases=3 Bus1=176928355.1.2.3 Bus2=-777777176928355.1.2.3 switch=y r1=0.001 x1=0.001 r0=0.001 x0=0.001 Length=0.001 units=km enabled=false
New Line.5054768:B5054768-1 phases=2 Bus1=43018475.1.3 Bus2=-77777743018475.1.3 switch=y r1=0.001 x1=0.001 r0=0.001 x0=0.001 Length=0.001 units=km
New Line.5054767:B5054767-2 phases=2 Bus1=42999780.1.3 Bus2=-77777742999780.1.3 switch=y r1=0.001 x1=0.001 r0=0.001 x0=0.001 Length=0.001 units=km
New Line.5002114:GS0638-2 phases=3 Bus1=55295271.1.2.3 Bus2=55295290.1.2.3 switch=y r1=0.001 x1=0.001 r0=0.001 x0=0.001 Length=0.001 units=km enabled=false
New Line.55295288$55295304 phases=3 Bus1=55295277.1.2.3 Bus2=55295271.1.2.3 switch=y r1=0.001 x1=0.001 r0=0.001 x0=0.001 Length=0.001 units=km
New Line.55295304$55295312 phases=3 Bus1=55295277.1.2.3 Bus2=55295283.1.2.3 switch=y r1=0.001 x1=0.001 r0=0.001 x0=0.001 Length=0.001 units=km
New Line.55295296$55295288 phases=3 Bus1=55295271.1.2.3 Bus2=55295270.1.2.3 switch=y r1=0.001 x1=0.001 r0=0.001 x0=0.001 Length=0.001 units=km
New Line.GS0625-2$55295611 phases=3 Bus1=55295590.1.2.3 Bus2=55295584.1.2.3 switch=y r1=0.001 x1=0.001 r0=0.001 x0=0.001 Length=0.001 units=km
New Line.55295595$GS0625-2 phases=3 Bus1=55295584.1.2.3 Bus2=55295583.1.2.3 switch=y r1=0.001 x1=0.001 r0=0.001 x0=0.001 Length=0.001 units=km
New Line.55345880$P5475866 phases=3 Bus1=55345873.1.2.3 Bus2=55345874.1.2.3 switch=y r1=0.001 x1=0.001 r0=0.001 x0=0.001 Length=0.001 units=km
New Line.55295749$55295741 phases=3 Bus1=55295723.1.2.3 Bus2=55295724.1.2.3 switch=y r1=0.001 x1=0.001 r0=0.001 x0=0.001 Length=0.001 units=km
New Line.55295741$55295757 phases=3 Bus1=55295724.1.2.3 Bus2=55295730.1.2.3 switch=y r1=0.001 x1=0.001 r0=0.001 x0=0.001 Length=0.001 units=km
New Line.5002114:GS0638-3 phases=3 Bus1=55295306.1.2.3 Bus2=55295277.1.2.3 switch=y r1=0.001 x1=0.001 r0=0.001 x0=0.001 Length=0.001 units=km
New Line.5002114:GS0638-4 phases=3 Bus1=55295283.1.2.3 Bus2=55295314.1.2.3 switch=y r1=0.001 x1=0.001 r0=0.001 x0=0.001 Length=0.001 units=km
New Line.5002114:GS0638-1 phases=3 Bus1=55295270.1.2.3 Bus2=55295298.1.2.3 switch=y r1=0.001 x1=0.001 r0=0.001 x0=0.001 Length=0.001 units=km
New Line.1541350E:1541350E phases=3 Bus1=55295453.1.2.3 Bus2=55295452.1.2.3 switch=y r1=0.001 x1=0.001 r0=0.001 x0=0.001 Length=0.001 units=km
New Line.1349619E:1349619E phases=3 Bus1=55318653.1.2.3 Bus2=55318654.1.2.3 switch=y r1=0.001 x1=0.001 r0=0.001 x0=0.001 Length=0.001 units=km
New Line.1662222E:PS0338 phases=3 Bus1=55346080.1.2.3 Bus2=55346081.1.2.3 switch=y r1=0.001 x1=0.001 r0=0.001 x0=0.001 Length=0.001 units=km
New Line.5003349:GS0625-3 phases=3 Bus1=55295613.1.2.3 Bus2=55295590.1.2.3 switch=y r1=0.001 x1=0.001 r0=0.001 x0=0.001 Length=0.001 units=km
New Line.5003349:GS0625-2 phases=3 Bus1=55295584.1.2.3 Bus2=55295605.1.2.3 switch=y r1=0.001 x1=0.001 r0=0.001 x0=0.001 Length=0.001 units=km
New Line.5003349:GS0625-1 phases=3 Bus1=55295583.1.2.3 Bus2=55295597.1.2.3 switch=y r1=0.001 x1=0.001 r0=0.001 x0=0.001 Length=0.001 units=km
New Line.5003324:GS0626-1 phases=3 Bus1=55295751.1.2.3 Bus2=55295723.1.2.3 switch=y r1=0.001 x1=0.001 r0=0.001 x0=0.001 Length=0.001 units=km
New Line.5003324:GS0626-2 phases=3 Bus1=55295724.1.2.3 Bus2=55295743.1.2.3 switch=y r1=0.001 x1=0.001 r0=0.001 x0=0.001 Length=0.001 units=km
New Line.1658475E:55319598 phases=3 Bus1=55319600.1.2.3 Bus2=55319601.1.2.3 switch=y r1=0.001 x1=0.001 r0=0.001 x0=0.001 Length=0.001 units=km
New Line.1658474E:55295556 phases=3 Bus1=55295558.1.2.3 Bus2=55295559.1.2.3 switch=y r1=0.001 x1=0.001 r0=0.001 x0=0.001 Length=0.001 units=km
New Line.1658472E:55295531 phases=2 Bus1=55295533.2.3 Bus2=55295534.2.3 switch=y r1=0.001 x1=0.001 r0=0.001 x0=0.001 Length=0.001 units=km
New Line.1658471E:55295506 phases=2 Bus1=55295508.2.3 Bus2=55295509.2.3 switch=y r1=0.001 x1=0.001 r0=0.001 x0=0.001 Length=0.001 units=km
New Line.4535081E:55295481 phases=2 Bus1=55295483.2.3 Bus2=55295484.2.3 switch=y r1=0.001 x1=0.001 r0=0.001 x0=0.001 Length=0.001 units=km
New Line.1662221E:58629602 phases=3 Bus1=58629604.1.2.3 Bus2=58629605.1.2.3 switch=y r1=0.001 x1=0.001 r0=0.001 x0=0.001 Length=0.001 units=km
New Line.1662218E:58606780 phases=3 Bus1=58606782.1.2.3 Bus2=58606783.1.2.3 switch=y r1=0.001 x1=0.001 r0=0.001 x0=0.001 Length=0.001 units=km
New Line.1662215E:58606809 phases=3 Bus1=58606811.1.2.3 Bus2=58606812.1.2.3 switch=y r1=0.001 x1=0.001 r0=0.001 x0=0.001 Length=0.001 units=km
New Line.1327372E:58629577 phases=3 Bus1=58629579.1.2.3 Bus2=58629580.1.2.3 switch=y r1=0.001 x1=0.001 r0=0.001 x0=0.001 Length=0.001 units=km
New Line.1662212E:58629523 phases=3 Bus1=58629525.1.2.3 Bus2=58629526.1.2.3 switch=y r1=0.001 x1=0.001 r0=0.001 x0=0.001 Length=0.001 units=km
New Line.1327373E:58629552 phases=3 Bus1=58629554.1.2.3 Bus2=58629555.1.2.3 switch=y r1=0.001 x1=0.001 r0=0.001 x0=0.001 Length=0.001 units=km
New Line.4668431E:299261576 phases=2 Bus1=299261578.2.3 Bus2=299261579.2.3 switch=y r1=0.001 x1=0.001 r0=0.001 x0=0.001 Length=0.001 units=km
New Line.28850E:BF02586 phases=2 Bus1=206573360.1.2 Bus2=206573361.1.2 switch=y r1=0.001 x1=0.001 r0=0.001 x0=0.001 Length=0.001 units=km
New Line.4668431E:BF02585 phases=2 Bus1=207913899.2.3 Bus2=207913900.2.3 switch=y r1=0.001 x1=0.001 r0=0.001 x0=0.001 Length=0.001 units=km
New Line.4429176E:RCS2569 phases=3 Bus1=210943358.1.2.3 Bus2=210943357.1.2.3 switch=y r1=0.001 x1=0.001 r0=0.001 x0=0.001 Length=0.001 units=km enabled=false
New Line.4773776E:PS1516 phases=3 Bus1=135632222.1.2.3 Bus2=135632221.1.2.3 switch=y r1=0.001 x1=0.001 r0=0.001 x0=0.001 Length=0.001 units=km enabled=false
New Line.5015312:RCS0693-4 phases=3 Bus1=60681169.1.2.3 Bus2=-77777760681169.1.2.3 switch=y r1=0.001 x1=0.001 r0=0.001 x0=0.001 Length=0.001 units=km enabled=false
New Line.1541350E:1541350EOT phases=3 Bus1=55346817.1.2.3 Bus2=55346818.1.2.3 switch=y r1=0.001 x1=0.001 r0=0.001 x0=0.001 Length=0.001 units=km
New Line.CAB_1658475E:1658475E phases=3 Bus1=55345380.1.2.3 Bus2=55319600.1.2.3 switch=y r1=0.001 x1=0.001 r0=0.001 x0=0.001 Length=0.001 units=km
New Line.CAB_1658474E:1658474E phases=3 Bus1=55295574.1.2.3 Bus2=55295558.1.2.3 switch=y r1=0.001 x1=0.001 r0=0.001 x0=0.001 Length=0.001 units=km
New Line.CAB_1658472E:1658472E phases=3 Bus1=55295549.1.2.3 Bus2=55295533.1.2.3 switch=y r1=0.001 x1=0.001 r0=0.001 x0=0.001 Length=0.001 units=km
New Line.CAB_1658471E:1658471E phases=3 Bus1=55295524.1.2.3 Bus2=55295508.1.2.3 switch=y r1=0.001 x1=0.001 r0=0.001 x0=0.001 Length=0.001 units=km
New Line.CAB_4535081E:4535081E phases=3 Bus1=55295499.1.2.3 Bus2=55295483.1.2.3 switch=y r1=0.001 x1=0.001 r0=0.001 x0=0.001 Length=0.001 units=km
New Line.CAB_1662221E:1662221E phases=3 Bus1=58629622.1.2.3 Bus2=58629604.1.2.3 switch=y r1=0.001 x1=0.001 r0=0.001 x0=0.001 Length=0.001 units=km
New Line.CAB_1662218E:1662218E phases=3 Bus1=58606800.1.2.3 Bus2=58606782.1.2.3 switch=y r1=0.001 x1=0.001 r0=0.001 x0=0.001 Length=0.001 units=km
New Line.CAB_1662215E:1662215E phases=3 Bus1=58606829.1.2.3 Bus2=58606811.1.2.3 switch=y r1=0.001 x1=0.001 r0=0.001 x0=0.001 Length=0.001 units=km
New Line.CAB_1327372E:1327372E phases=3 Bus1=58629595.1.2.3 Bus2=58629579.1.2.3 switch=y r1=0.001 x1=0.001 r0=0.001 x0=0.001 Length=0.001 units=km
New Line.CAB_1662212E:1662212E phases=3 Bus1=58629543.1.2.3 Bus2=58629525.1.2.3 switch=y r1=0.001 x1=0.001 r0=0.001 x0=0.001 Length=0.001 units=km
New Line.CAB_1327373E:1327373E phases=3 Bus1=58629570.1.2.3 Bus2=58629554.1.2.3 switch=y r1=0.001 x1=0.001 r0=0.001 x0=0.001 Length=0.001 units=km
New Line.CAB_4668431E:4668431E phases=3 Bus1=299261595.1.2.3 Bus2=299261578.1.2.3 switch=y r1=0.001 x1=0.001 r0=0.001 x0=0.001 Length=0.001 units=km
New Line.CAB_4761140E:4761140E phases=3 Bus1=54028408.1.2.3 Bus2=54028392.1.2.3 switch=y r1=0.001 x1=0.001 r0=0.001 x0=0.001 Length=0.001 units=km
New Line.CAB_4374250E:4374250E phases=3 Bus1=54029939.1.2.3 Bus2=54029923.1.2.3 switch=y r1=0.001 x1=0.001 r0=0.001 x0=0.001 Length=0.001 units=km
New Line.CAB_589031E:589031E phases=3 Bus1=54028333.1.2.3 Bus2=54028317.1.2.3 switch=y r1=0.001 x1=0.001 r0=0.001 x0=0.001 Length=0.001 units=km
New Line.5054764:P5054764-B phases=3 Bus1=210332391.1.2.3 Bus2=210332390.1.2.3 switch=y r1=0.001 x1=0.001 r0=0.001 x0=0.001 Length=0.001 units=km enabled=false
New Line.ST__CHARLES$TRI_CITY_RCS2569$RCS2569 phases=3 Bus1=210943357.1.2.3 Bus2=-777777210943357.1.2.3 switch=y r1=0.001 x1=0.001 r0=0.001 x0=0.001 Length=0.001 units=km
New Line.55295757$55295765 phases=3 Bus1=55295730.1.2.3 Bus2=55295736.1.2.3 switch=y r1=0.001 x1=0.001 r0=0.001 x0=0.001 Length=0.001 units=km
New Line.42998407$GS0610-2 phases=3 Bus1=42998382.1.2.3 Bus2=42998381.1.2.3 switch=y r1=0.001 x1=0.001 r0=0.001 x0=0.001 Length=0.001 units=km
New Line.55316521$55316537 phases=3 Bus1=55316504.1.2.3 Bus2=55316510.1.2.3 switch=y r1=0.001 x1=0.001 r0=0.001 x0=0.001 Length=0.001 units=km
New Line.55316537$55316545 phases=3 Bus1=55316510.1.2.3 Bus2=55316516.1.2.3 switch=y r1=0.001 x1=0.001 r0=0.001 x0=0.001 Length=0.001 units=km
New Line.174738669$GS0627-2 phases=3 Bus1=174738651.1.2.3 Bus2=174738652.1.2.3 switch=y r1=0.001 x1=0.001 r0=0.001 x0=0.001 Length=0.001 units=km
New Line.GS0627-2$GS0627-3 phases=3 Bus1=174738652.1.2.3 Bus2=174738658.1.2.3 switch=y r1=0.001 x1=0.001 r0=0.001 x0=0.001 Length=0.001 units=km
New Line.GS0627-3$174738696 phases=3 Bus1=174738658.1.2.3 Bus2=174738664.1.2.3 switch=y r1=0.001 x1=0.001 r0=0.001 x0=0.001 Length=0.001 units=km
New Line.174139534$174139543 phases=3 Bus1=174139514.1.2.3 Bus2=174139508.1.2.3 switch=y r1=0.001 x1=0.001 r0=0.001 x0=0.001 Length=0.001 units=km
New Line.174139543$GS0628-4 phases=3 Bus1=174139514.1.2.3 Bus2=174139520.1.2.3 switch=y r1=0.001 x1=0.001 r0=0.001 x0=0.001 Length=0.001 units=km
New Line.174139525$174139534 phases=3 Bus1=174139508.1.2.3 Bus2=174139507.1.2.3 switch=y r1=0.001 x1=0.001 r0=0.001 x0=0.001 Length=0.001 units=km